-----BEGIN RSA PUBLIC KEY-----
MIICCgKCAgEA6Eo7CvbNGVwj69bKil4FOlepdoxNNgcCpUrPg7FLBWB0a8I9WKN1
5GQMYzF6pg0zayB7k/O+FW/2LQAOHIJdimBm2+NE4AYyxipGmkr7te97RLW4Znt0
DzCitx5B2FkJ1Zxw+MT3Dw0TAV+xwQj9ChPEympigzNxhWujRqdqgbsSXmHSAYSn
0RJbeoFANSxcNfLHJjjDq9OUb17MBNeoRRN/FJdZ3ZUscWIUQZBPccRyl8WL8L0x
E5K86MwIYrcX3u1foQAdDENySNSwXmh4i2Ot6b1/V9ocyOlAdEgFHmh8jqcrNu89
PVUf5HyocSIJKJssT/iQ7AAst1WbpElJHVezPFfNMDbnmtcZlUQAf1TQ3vlBlyny
iyQWZlWzKnnm0IHfXxrXC8NDTI0wXUEPrvjFug7OjMfelC37NXb2p2e3apS6M3Cm
EMPXE6LoEtgjUAYK9GlSKScqWA9YRvqKjkrwfvHbBpfr482/wgaokzU2iNybUxLw
ZhWKKP7ZMdkQoe1Z4xHKDZ3eMCjsEwvJ/VcExPkCtUuq/Y44t9DVN/Qyg4L5dF5G
n4x80FtOSwT9yQFmag9j0nvMR+2WQdWbgM10+TSP0AqzvUcEdHmWKVlKAxh34Gs8
epM17gFvsqueQW4EAbqbwWtKxca4Xx4LAPlrfHUCCLrzNFNvXfq7EnsCAwEAAQ==
-----END RSA PUBLIC KEY-----
