-----BEGIN RSA PRIVATE KEY-----
MIIJKAIBAAKCAgEA6Eo7CvbNGVwj69bKil4FOlepdoxNNgcCpUrPg7FLBWB0a8I9
WKN15GQMYzF6pg0zayB7k/O+FW/2LQAOHIJdimBm2+NE4AYyxipGmkr7te97RLW4
Znt0DzCitx5B2FkJ1Zxw+MT3Dw0TAV+xwQj9ChPEympigzNxhWujRqdqgbsSXmHS
AYSn0RJbeoFANSxcNfLHJjjDq9OUb17MBNeoRRN/FJdZ3ZUscWIUQZBPccRyl8WL
8L0xE5K86MwIYrcX3u1foQAdDENySNSwXmh4i2Ot6b1/V9ocyOlAdEgFHmh8jqcr
Nu89PVUf5HyocSIJKJssT/iQ7AAst1WbpElJHVezPFfNMDbnmtcZlUQAf1TQ3vlB
lynyiyQWZlWzKnnm0IHfXxrXC8NDTI0wXUEPrvjFug7OjMfelC37NXb2p2e3apS6
M3CmEMPXE6LoEtgjUAYK9GlSKScqWA9YRvqKjkrwfvHbBpfr482/wgaokzU2iNyb
UxLwZhWKKP7ZMdkQoe1Z4xHKDZ3eMCjsEwvJ/VcExPkCtUuq/Y44t9DVN/Qyg4L5
dF5Gn4x80FtOSwT9yQFmag9j0nvMR+2WQdWbgM10+TSP0AqzvUcEdHmWKVlKAxh3
4Gs8epM17gFvsqueQW4EAbqbwWtKxca4Xx4LAPlrfHUCCLrzNFNvXfq7EnsCAwEA
AQKCAgAlgcbi0FLxo1URgY8WpHPHpdvxDlpxPNSKh/fV1cy9Q4PI2oY5R7uDczwk
0BpzsXH5/Da3/wVURM3FGlss80fTThmNq7a1TYrpQG5B/5WBHPgUchsiQRDOWxYK
51HOcyIJYcdEA9m4jm3hLOhwuNjSxbpizKa3dJkB6A1nHSUvaVtf7f+QyzClq4cl
0rThYRZKh7bsTwIZPoKbMP1UUtYSwUElvAKAqtOQQzvuEjUhs4ylQPqFlqbT+D+U
f01jUxkBn+ZvAquuDT3o0J7hv5CnQSMVuMlVEBzRvAfyPqbE8C4cgpWRuzNyMcqC
hDZWfh5odhXDm+kakjSmLaaB8mthiL7/9fBhB7/9duVInCMXnJufb0YmO3QSeYC9
g9AY1hzD3QzH0YhG90bI3NmMucS6tZlQZrykbU3oj292gLUS6fC5QcZGOkMz3yBE
DOg97CSsIT7rKF1OpajzT/VVpoaFPzT3nCbPiIB9DpyDyEeiKCzYeEI3gwFebuXv
hv39Ny1ylsP/m8sNsKU91EO8b1Ph50I1HA/CWzyGvTazhzTLY78MBU+WdiwaeY92
2t2S/LWvIWxVQiLMr9ynXqpjeV0mMYmuoJw1bG0IzDx1ep5Amk8dCFT6OpKf0Y/w
9TkNtU8TNKl87eXIFoTJzMFE+hesVjuCxtQ+kAtVF7oAx50NwQKCAQEA7bveNhBK
lMv6jxU99kgzODp39ugpcxd7zAyPZumwNZNziBFRF1mK2MhGv8svUNt/yNAEZsmw
H2MMPTSez0IeSWEg0i+W11bNaltvCbuOWNiG8vrHWCog1Ct8B6zZ3BkrGrgOLx9T
aYPR40xgepCfh8Zb/pzm0RufsdQU6txXSbiRaCN38TXw4+DKJIBbA34WxdM7GcXc
XgRUm3nSH4jbP02r64IyTL56oJEEF+egfLmGLmpE32Q8QEOZeZCI8CmfosShAGmh
xwffCDiPS8OYOAOkYmjUc/DzYTTRMQnjLeuJDhOvjdyKvsRHEZSqQDj7QMM27XeG
g2Op3xTOybhRywKCAQEA+iNIh6BgFxNreQ9u1Q6rPfFQolEqtkSJ9ZiMQ0ZjtwFm
tJmiQTnZwoV4YnTdu+nznl8jcEFcu2SA5G/vJTlDIXFB6N96L1BfZ4LS350vFw75
5V0ACe+XnUZY++WLgeqYUhWJKuTVgI/mleLAaL0sPjo2IVPsTNdmuk9M6CnYjEee
noDS9udkxxRSMRb7QrA4KdeuM7H5nKJ/4F+QDhdRnRQSFE5hCkKyjMBKZHw/veiH
W4mm8THKIfRnJs6oZz6Bo9hzb9W3nH5PJJcdeNMFboCwTNK/JJw5Jbh5u01OP5o5
tjDTqlWwNRejrx0uX9AHOTeoUks8rqLqU3l26XRsEQKCAQBsxCdGVO3KZgicrftL
Un0cnKOGM3HDVlstYBG74+7alDunZUTUigMca4Ty+uMK+2HbXlClNmF9+rL+zbRa
3sU8jVOW1m8M1onkvzBuI4Fc5LPZNyM9EwkyCTMVz99c86bk8pCKvqpK/CRq+eaq
LMDQPdCZDPANe7X0hjOLwIOvFuJv4spdcXBk0dOqH4+EaYvBtoKzp/LKkPCksXeR
NewZak/d0BNzSTKRg8d7qF2ksrzRP42DJzjprgPpulbsih6fOZbvuWRqyw8fk8D7
yOE7v27WF2AcK4EuWBvdc8icmcZ6ykbngJ956BMb2AiMmYVae/YFb0n7kv2FMt/p
KotBAoIBABHNIQRF7ZC22Rcsef6/pIAsBEkI7bk693Z6/MBs6fvEJcMEi/+IVm75
gK/BEWamJ6hFrQf4HtlXNbUMIkDL6nMe1En2XYOwfJmpPcicLxW9AxvHmpEac/fF
Yd/LXjpIr75nufNLhcY4d3iDQp4xmEx1aBTHHDH7wlvP+PEsyTRyhF9TW7Aml41z
bMYBlLASSmzv5H3ZVKJJDkCxjFb0YeKD4yV+znkkdgB+Ts0H6qFhQwDIsxDHMlNo
SU8Btgpi8GbwqIZ09zQz6P35oydOHTzX+7P76453b7m3fzJNNhxgpWrJ3sZogrnE
jOmRchNvgpQX2erBX/gtr+9w3X2Pw4ECggEBAId66yJtaDi+KY6mv6rE2zk4Ee84
TxIm7B4dRSZl2ChSdqP7ktRvn7qGht4AsqRukR7tBPQ/v1cqOCNbJXXIG+eeJJs/
Cs4upoHKVkISbtxh5nSwOsmc+CKaBbUyIJ+zLdbtUzgiaIOonV0s8rOfUNOMEkdR
0SsMWzmBPx1/g0LPzwOKYOJA/7T9C+BweBzS+q5qJrn+xnCWHdL+ILghFY9k7cvG
wWYitHELzckvGzIzUGRbfG/p+I0I58kcj+NcfvcDysaec2yI1sexstSGV6PLzRMf
TR7un1Y6gtCwWgecpTiFj8C0Lj933XZpcmks7GazlervwwSbuGPX36OGRD0=
-----END RSA PRIVATE KEY-----
