-----BEGIN PUBLIC KEY-----
MIICIjANBgkqhkiG9w0BAQEFAAOCAg8AMIICCgKCAgEA6Eo7CvbNGVwj69bKil4F
OlepdoxNNgcCpUrPg7FLBWB0a8I9WKN15GQMYzF6pg0zayB7k/O+FW/2LQAOHIJd
imBm2+NE4AYyxipGmkr7te97RLW4Znt0DzCitx5B2FkJ1Zxw+MT3Dw0TAV+xwQj9
ChPEympigzNxhWujRqdqgbsSXmHSAYSn0RJbeoFANSxcNfLHJjjDq9OUb17MBNeo
RRN/FJdZ3ZUscWIUQZBPccRyl8WL8L0xE5K86MwIYrcX3u1foQAdDENySNSwXmh4
i2Ot6b1/V9ocyOlAdEgFHmh8jqcrNu89PVUf5HyocSIJKJssT/iQ7AAst1WbpElJ
HVezPFfNMDbnmtcZlUQAf1TQ3vlBlynyiyQWZlWzKnnm0IHfXxrXC8NDTI0wXUEP
rvjFug7OjMfelC37NXb2p2e3apS6M3CmEMPXE6LoEtgjUAYK9GlSKScqWA9YRvqK
jkrwfvHbBpfr482/wgaokzU2iNybUxLwZhWKKP7ZMdkQoe1Z4xHKDZ3eMCjsEwvJ
/VcExPkCtUuq/Y44t9DVN/Qyg4L5dF5Gn4x80FtOSwT9yQFmag9j0nvMR+2WQdWb
gM10+TSP0AqzvUcEdHmWKVlKAxh34Gs8epM17gFvsqueQW4EAbqbwWtKxca4Xx4L
APlrfHUCCLrzNFNvXfq7EnsCAwEAAQ==
-----END PUBLIC KEY-----
